/*--------------------------------*- C++ -*----------------------------------*\
| =========                 |                                                 |
| \\      /  F ield         | OpenFOAM: The Open Source CFD Toolbox           |
|  \\    /   O peration     | Version:  2.4.0                                 |
|   \\  /    A nd           | Web:      www.OpenFOAM.org                      |
|    \\/     M anipulation  |                                                 |
\*---------------------------------------------------------------------------*/
FoamFile
{
    version     2.0;
    format      ascii;
    class       polyBoundaryMesh;
    location    "constant/polyMesh";
    object      boundary;
}
// * * * * * * * * * * * * * * * * * * * * * * * * * * * * * * * * * * * * * //

9
(
    inlet
    {
        type            patch;
        nFaces          280;
        startFace       259456;
    }
    outlet
    {
        type            patch;
        nFaces          248;
        startFace       259736;
    }
    upperAndLower
    {
        type            wall;
        inGroups        1(wall);
        nFaces          984;
        startFace       259984;
    }
    rotor
    {
        type            wall;
        inGroups        1(wall);
        nFaces          156;
        startFace       260968;
    }
    stator
    {
        type            wall;
        inGroups        1(wall);
        nFaces          380;
        startFace       261124;
    }
    AMI1
    {
        type            cyclicAMI;
        inGroups        1(cyclicAMI);
        nFaces          96;
        startFace       261504;
        matchTolerance  0.0001;
        transform       noOrdering;
        neighbourPatch  AMI2;
    }
    AMI2
    {
        type            cyclicAMI;
        inGroups        1(cyclicAMI);
        nFaces          96;
        startFace       261600;
        matchTolerance  0.0001;
        transform       noOrdering;
        neighbourPatch  AMI1;
    }
    front
    {
        type            empty;
        inGroups        1(empty);
        nFaces          130288;
        startFace       261696;
    }
    back
    {
        type            empty;
        inGroups        1(empty);
        nFaces          130288;
        startFace       391984;
    }
)

// ************************************************************************* //
