/*--------------------------------*- C++ -*----------------------------------*\
| =========                 |                                                 |
| \\      /  F ield         | OpenFOAM: The Open Source CFD Toolbox           |
|  \\    /   O peration     | Version:  2.4.0                                 |
|   \\  /    A nd           | Web:      www.OpenFOAM.org                      |
|    \\/     M anipulation  |                                                 |
\*---------------------------------------------------------------------------*/
FoamFile
{
    version     2.0;
    format      ascii;
    class       dictionary;
    location    "system";
    object      controlDict;
}
// * * * * * * * * * * * * * * * * * * * * * * * * * * * * * * * * * * * * * //

application     pimpleDyMFoam;

startFrom       startTime;

startTime       0;

stopAt          endTime;

endTime         3.423;

deltaT          0.0001;

writeControl    adjustableRunTime;

writeInterval   0.001;

purgeWrite      0;

writeFormat     ascii;

writePrecision  6;

writeCompression off;

timeFormat      general;

timePrecision   6;

runTimeModifiable true;

adjustTimeStep  yes;

maxCo           0.5;

functions
{
    forces
    {
        type            forceCoeffs;
        functionObjectLibs ( "libforces.so" );
        outputControl   outputTime;
        outputInterval  1;

        patches
        (
            stator
        );

        pName       p;
        UName       U;
        log         true;
	rhoName	    rhoInf;
        rhoInf      1.29;
        CofR        ( 0 0 0 );
        liftDir     ( 0 1 0 );
        dragDir     ( 1 0 0 );
        pitchAxis   ( 0 0 1 );
        magUInf     25;
        lRef        0.3;
        Aref        0.0003;
    }
}
// ************************************************************************* //
