/*--------------------------------*- C++ -*----------------------------------*\
| =========                 |                                                 |
| \\      /  F ield         | OpenFOAM: The Open Source CFD Toolbox           |
|  \\    /   O peration     | Version:  2.4.0                                 |
|   \\  /    A nd           | Web:      www.OpenFOAM.org                      |
|    \\/     M anipulation  |                                                 |
\*---------------------------------------------------------------------------*/
FoamFile
{
    version     2.0;
    format      ascii;
    class       volScalarField;
    location    "0";
    object      k;
}
// * * * * * * * * * * * * * * * * * * * * * * * * * * * * * * * * * * * * * //

dimensions      [ 0 2 -2 0 0 0 0 ];

internalField   uniform 0.24; // approx k = 1.5*(I*U)^2 ; I = 0.1

boundaryField
{
    rotor
    {
        type            kqRWallFunction;
        value           uniform 0;
    }

    stator
    {
        type            kqRWallFunction;
        value           uniform 0;
    }

    inlet
    {
    	type 		fixedValue;
    	value 		$internalField;
    }

    outlet
    {
        type            inletOutlet;
        inletValue      $internalField;
        value           $internalField;
    }

    upperAndLower
    {
        type            slip;
    }

    front
    {
        type            empty;
    }

    back
    {
        type            empty;
    }

    AMI1
    {
        type            cyclicAMI;
        value           $internalField;
    }

    AMI2
    {
        type            cyclicAMI;
        value           $internalField;
    }
}


// ************************************************************************* //
