/*--------------------------------*- C++ -*----------------------------------*\
| =========                 |                                                 |
| \\      /  F ield         | OpenFOAM: The Open Source CFD Toolbox           |
|  \\    /   O peration     | Version:  2.4.0                                 |
|   \\  /    A nd           | Web:      www.OpenFOAM.org                      |
|    \\/     M anipulation  |                                                 |
\*---------------------------------------------------------------------------*/
FoamFile
{
    version     2.0;
    format      ascii;
    class       volVectorField;
    object      U;
}
// * * * * * * * * * * * * * * * * * * * * * * * * * * * * * * * * * * * * * //

dimensions      [0 1 -1 0 0 0 0];

internalField   uniform (25 0 0);

boundaryField
{
    rotor
    {
        type            movingWallVelocity; // fixedValue;
        value           uniform (0 0 0);
    }

    stator
    {
        type            movingWallVelocity; // fixedValue;
        value           uniform (0 0 0);
    }

    inlet
    {
   	type  		fixedValue;
  	value 		$internalField;
    }

    outlet
    {
        type            inletOutlet;
        inletValue      uniform (0 0 0);
        value           $internalField;
    }

    upperAndLower
    {
        type            slip;
    }

    front
    {
        type            empty;
    }

    back
    {
        type            empty;
    }

    AMI1
    {
        type            cyclicAMI;
        value           uniform (0 0 0);
    }

    AMI2
    {
        type            cyclicAMI;
        value           uniform (0 0 0);
    }
}

// ************************************************************************* //
